<?xml version="1.0" encoding="UTF-8"?>

<!-- generated on 2024-04-30 09:09:50.505117 by osmWebWizard.py v1_19_0+0000-baa66a0f364
<configuration>
    <net-file value="C:\WINDOWS\system32\2024-04-30-09-09-43\osm.net.xml.gz"/>
    <output-trip-file value="C:\WINDOWS\system32\2024-04-30-09-09-43\osm.passenger.trips.xml"/>
    <route-file value="C:\WINDOWS\system32\2024-04-30-09-09-43\osm.passenger.rou.xml"/>
    <prefix value="veh"/>
    <trip-attributes value="departLane=&quot;best&quot;"/>
    <fringe-start-attributes value="departSpeed=&quot;max&quot;"/>
    <vehicle-class value="passenger"/>
    <lanes value="True"/>
    <fringe-factor value="5"/>
    <allow-fringe.min-length value="1000.0"/>
    <via-edge-types value="highway.motorway,highway.motorway_link,highway.trunk_link,highway.primary_link,highway.secondary_link,highway.tertiary_link"/>
    <min-distance value="300.0"/>
    <min-distance.fringe value="10.0"/>
    <remove-loops value="True"/>
    <validate value="True"/>
    <end value="90000.0"/>
    <insertion-density value="12.0"/>
</configuration>
-->

<!-- generated on 2024-04-30 09:09:49 by Eclipse SUMO duarouter Version 1.19.0
<configuration xmlns:xsi="http://www.w3.org/2001/XMLSchema-instance" xsi:noNamespaceSchemaLocation="http://sumo.dlr.de/xsd/duarouterConfiguration.xsd">

    <input>
        <net-file value="C:\WINDOWS\system32\2024-04-30-09-09-43\osm.net.xml.gz"/>
        <route-files value="C:\WINDOWS\system32\2024-04-30-09-09-43\osm.passenger.trips.xml"/>
    </input>

    <output>
        <output-file value="C:\WINDOWS\system32\2024-04-30-09-09-43\osm.passenger.trips.xml.tmp"/>
        <alternatives-output value="NUL"/>
        <write-trips value="true"/>
    </output>

    <processing>
        <remove-loops value="true"/>
    </processing>

    <time>
        <begin value="0.0"/>
        <end value="90000.0"/>
    </time>

    <report>
        <no-warnings value="true"/>
        <ignore-errors value="true"/>
        <no-step-log value="true"/>
    </report>

</configuration>
-->

<routes xmlns:xsi="http://www.w3.org/2001/XMLSchema-instance" xsi:noNamespaceSchemaLocation="http://sumo.dlr.de/xsd/routes_file.xsd">
    <vType id="veh_passenger" vClass="passenger"/>
    <trip id="veh0" type="veh_passenger" depart="0.00" departLane="best" from="299065990#1" to="141890673#5"/>
    <trip id="veh1" type="veh_passenger" depart="10.65" departLane="best" from="-56479938#2" to="-529267364#0"/>
    <trip id="veh2" type="veh_passenger" depart="21.31" departLane="best" from="84647556#1" to="-28822164#0"/>
    <trip id="veh3" type="veh_passenger" depart="31.96" departLane="best" from="-84647565#0" to="-141890673#6"/>
    <trip id="veh4" type="veh_passenger" depart="42.62" departLane="best" from="529267361#1" to="-141890673#1"/>
    <trip id="veh5" type="veh_passenger" depart="53.27" departLane="best" from="-141890673#5" to="-48719120#0"/>
    <trip id="veh6" type="veh_passenger" depart="63.93" departLane="best" from="-299066707" to="141890673#9"/>
    <trip id="veh7" type="veh_passenger" depart="74.58" departLane="best" from="529267364#0" to="28822164#0"/>
    <trip id="veh8" type="veh_passenger" depart="85.24" departLane="best" from="-56481093#1" to="-141890673#1"/>
    <trip id="veh9" type="veh_passenger" depart="95.89" departLane="best" from="-76227969#1" to="-48719079#0"/>
    <trip id="veh10" type="veh_passenger" depart="106.55" departLane="best" from="84647565#4" to="-76227969#0"/>
    <trip id="veh11" type="veh_passenger" depart="117.20" departLane="best" from="-82860504#0" to="28822164#2"/>
    <trip id="veh12" type="veh_passenger" depart="127.86" departLane="best" from="56481093#0" to="-56479503"/>
    <trip id="veh13" type="veh_passenger" depart="138.51" departLane="best" from="141890673#7" to="84647565#8"/>
    <trip id="veh15" type="veh_passenger" depart="159.82" departLane="best" from="-56479938#2" to="-529267364#0"/>
    <trip id="veh16" type="veh_passenger" depart="170.48" departLane="best" from="-84647549" to="-198407005#0"/>
    <trip id="veh17" type="veh_passenger" depart="181.13" departLane="best" from="48719120#1" to="-141890673#9"/>
    <trip id="veh18" type="veh_passenger" depart="191.79" departLane="best" from="529267364#1" to="-56480070#1"/>
    <trip id="veh19" type="veh_passenger" depart="202.44" departLane="best" from="28822164#2" to="-56479938#5"/>
    <trip id="veh20" type="veh_passenger" depart="213.10" departLane="best" from="299065990#0" to="82860504#1"/>
    <trip id="veh21" type="veh_passenger" depart="223.75" departLane="best" from="-84647549" to="-529267361#0"/>
    <trip id="veh22" type="veh_passenger" depart="234.41" departLane="best" from="-56479938#1" to="-529267364#0"/>
    <trip id="veh23" type="veh_passenger" depart="245.06" departLane="best" from="-56479938#2" to="-529267364#0"/>
    <trip id="veh24" type="veh_passenger" depart="255.72" departLane="best" from="48719079#1" to="-84647550#1"/>
    <trip id="veh25" type="veh_passenger" depart="266.37" departLane="best" from="-97093003#1" to="299065990#1"/>
    <trip id="veh27" type="veh_passenger" depart="287.68" departLane="best" from="529267364#1" to="-141890673#6"/>
    <trip id="veh28" type="veh_passenger" depart="298.34" departLane="best" from="-56481093#0" to="-56479938#1"/>
    <trip id="veh29" type="veh_passenger" depart="308.99" departLane="best" from="84647550#2" to="84647565#13"/>
    <trip id="veh30" type="veh_passenger" depart="319.65" departLane="best" from="84647550#2" to="-56481093#0"/>
    <trip id="veh31" type="veh_passenger" depart="330.30" departLane="best" from="48719079#1" to="84647561#0"/>
    <trip id="veh33" type="veh_passenger" depart="351.61" departLane="best" from="226900712" to="84647556#2"/>
    <trip id="veh34" type="veh_passenger" depart="362.27" departLane="best" from="-84647561#0" to="-529267361#1"/>
    <trip id="veh35" type="veh_passenger" depart="372.92" departLane="best" from="-97093003#2" to="-141890673#3"/>
    <trip id="veh36" type="veh_passenger" depart="383.58" departLane="best" from="-28822164#1" to="141890673#9"/>
    <trip id="veh37" type="veh_passenger" depart="394.23" departLane="best" from="28822164#4" to="28822164#8"/>
    <trip id="veh39" type="veh_passenger" depart="415.54" departLane="best" from="-97093003#2" to="-141890673#6"/>
    <trip id="veh40" type="veh_passenger" depart="426.20" departLane="best" from="84647565#7" to="84647549"/>
    <trip id="veh41" type="veh_passenger" depart="436.85" departLane="best" from="141890673#3" to="-529267364#1"/>
    <trip id="veh42" type="veh_passenger" depart="447.51" departLane="best" from="48719079#5" to="141890673#8"/>
    <trip id="veh43" type="veh_passenger" depart="458.16" departLane="best" from="28822164#4" to="84647565#12"/>
    <trip id="veh44" type="veh_passenger" depart="468.82" departLane="best" from="84647550#2" to="56479938#0"/>
    <trip id="veh45" type="veh_passenger" depart="479.47" departLane="best" from="141890673#0" to="-48719079#4"/>
    <trip id="veh46" type="veh_passenger" depart="490.13" departLane="best" from="84647561#5" to="-84647550#1"/>
    <trip id="veh47" type="veh_passenger" depart="500.78" departLane="best" from="-56480695#0" to="299065990#1"/>
    <trip id="veh48" type="veh_passenger" depart="511.44" departLane="best" from="28822164#3" to="-48719079#0"/>
    <trip id="veh49" type="veh_passenger" depart="522.09" departLane="best" from="-56479938#2" to="141890673#8"/>
    <trip id="veh50" type="veh_passenger" depart="532.75" departLane="best" from="56480070#1" to="141890673#6"/>
    <trip id="veh51" type="veh_passenger" depart="543.40" departLane="best" from="141890673#0" to="-56481099"/>
    <trip id="veh52" type="veh_passenger" depart="554.06" departLane="best" from="-141890673#4" to="84647565#1"/>
    <trip id="veh53" type="veh_passenger" depart="564.71" departLane="best" from="84647550#2" to="76227969#1"/>
    <trip id="veh55" type="veh_passenger" depart="586.02" departLane="best" from="84647550#2" to="84647565#2"/>
    <trip id="veh56" type="veh_passenger" depart="596.68" departLane="best" from="-28822164#0" to="97093003#1"/>
    <trip id="veh57" type="veh_passenger" depart="607.33" departLane="best" from="198407008#1" to="56479938#2"/>
    <trip id="veh58" type="veh_passenger" depart="617.99" departLane="best" from="56479938#5" to="-28822164#8"/>
    <trip id="veh60" type="veh_passenger" depart="639.30" departLane="best" from="-56479938#0" to="-84647550#1"/>
    <trip id="veh61" type="veh_passenger" depart="649.95" departLane="best" from="-84647565#0" to="-529267361#0"/>
    <trip id="veh62" type="veh_passenger" depart="660.61" departLane="best" from="141890673#8" to="-56479503"/>
    <trip id="veh63" type="veh_passenger" depart="671.26" departLane="best" from="-97093003#2" to="299066707"/>
    <trip id="veh64" type="veh_passenger" depart="681.92" departLane="best" from="-84647565#13" to="141890673#4"/>
    <trip id="veh65" type="veh_passenger" depart="692.57" departLane="best" from="-28822164#7" to="-529267364#0"/>
    <trip id="veh66" type="veh_passenger" depart="703.23" departLane="best" from="-76227969#0" to="-28822164#0"/>
    <trip id="veh67" type="veh_passenger" depart="713.88" departLane="best" from="529267364#1" to="529267361#1"/>
    <trip id="veh68" type="veh_passenger" depart="724.54" departLane="best" from="198407008#1" to="-28822164#8"/>
    <trip id="veh69" type="veh_passenger" depart="735.19" departLane="best" from="529267364#1" to="84647561#3"/>
    <trip id="veh70" type="veh_passenger" depart="745.85" departLane="best" from="-84647549" to="-198407005#0"/>
    <trip id="veh71" type="veh_passenger" depart="756.50" departLane="best" from="84647550#2" to="-299065990#0"/>
    <trip id="veh72" type="veh_passenger" depart="767.16" departLane="best" from="-84647565#12" to="-198407008#0"/>
    <trip id="veh73" type="veh_passenger" depart="777.81" departLane="best" from="-84647565#8" to="-56479938#2"/>
    <trip id="veh74" type="veh_passenger" depart="788.47" departLane="best" from="56481093#0" to="-48719080#0"/>
    <trip id="veh75" type="veh_passenger" depart="799.12" departLane="best" from="28822164#2" to="84647565#12"/>
    <trip id="veh76" type="veh_passenger" depart="809.78" departLane="best" from="84647565#0" to="84647565#7"/>
    <trip id="veh77" type="veh_passenger" depart="820.43" departLane="best" from="-97093003#0" to="28822164#2"/>
    <trip id="veh78" type="veh_passenger" depart="831.09" departLane="best" from="-84647561#3" to="-76227969#1"/>
    <trip id="veh79" type="veh_passenger" depart="841.74" departLane="best" from="-84647549" to="-56479626"/>
    <trip id="veh80" type="veh_passenger" depart="852.40" departLane="best" from="48719080#0" to="-84647565#3"/>
    <trip id="veh81" type="veh_passenger" depart="863.05" departLane="best" from="-84647565#0" to="-56479938#5"/>
    <trip id="veh82" type="veh_passenger" depart="873.71" departLane="best" from="56479626" to="-84647565#0"/>
    <trip id="veh83" type="veh_passenger" depart="884.36" departLane="best" from="84647565#2" to="84647549"/>
    <trip id="veh85" type="veh_passenger" depart="905.67" departLane="best" from="-97093003#2" to="76227969#1"/>
    <trip id="veh86" type="veh_passenger" depart="916.33" departLane="best" from="-84647565#7" to="-84647565#0"/>
    <trip id="veh87" type="veh_passenger" depart="926.98" departLane="best" from="-82860504#0" to="-48719079#2"/>
    <trip id="veh88" type="veh_passenger" depart="937.64" departLane="best" from="-97093003#0" to="-529267361#0"/>
    <trip id="veh90" type="veh_passenger" depart="958.95" departLane="best" from="84647550#1" to="97093003#0"/>
    <trip id="veh91" type="veh_passenger" depart="969.60" departLane="best" from="-84647565#4" to="-84647565#0"/>
    <trip id="veh92" type="veh_passenger" depart="980.26" departLane="best" from="-84647565#4" to="97093003#2"/>
    <trip id="veh94" type="veh_passenger" depart="1001.57" departLane="best" from="198407005#1" to="-56480695#0"/>
    <trip id="veh95" type="veh_passenger" depart="1012.22" departLane="best" from="-84647565#7" to="-198407005#0"/>
    <trip id="veh96" type="veh_passenger" depart="1022.88" departLane="best" from="141890673#8" to="56479938#0"/>
    <trip id="veh98" type="veh_passenger" depart="1044.19" departLane="best" from="141890673#1" to="82860504#0"/>
    <trip id="veh99" type="veh_passenger" depart="1054.84" departLane="best" from="198407005#1" to="84647565#5"/>
    <trip id="veh100" type="veh_passenger" depart="1065.50" departLane="best" from="226900712" to="-48719079#5"/>
    <trip id="veh101" type="veh_passenger" depart="1076.15" departLane="best" from="28822164#1" to="-48719079#4"/>
    <trip id="veh102" type="veh_passenger" depart="1086.81" departLane="best" from="84647556#2" to="28822164#7"/>
    <trip id="veh103" type="veh_passenger" depart="1097.46" departLane="best" from="84647556#1" to="-56479503"/>
    <trip id="veh104" type="veh_passenger" depart="1108.12" departLane="best" from="28822164#1" to="28822164#6"/>
    <trip id="veh105" type="veh_passenger" depart="1118.77" departLane="best" from="-84647565#0" to="-226900712"/>
    <trip id="veh106" type="veh_passenger" depart="1129.43" departLane="best" from="141890673#5" to="84647565#12"/>
    <trip id="veh107" type="veh_passenger" depart="1140.08" departLane="best" from="48719120#1" to="-529267364#0"/>
    <trip id="veh108" type="veh_passenger" depart="1150.74" departLane="best" from="48719079#3" to="-56480695#2"/>
    <trip id="veh109" type="veh_passenger" depart="1161.39" departLane="best" from="-56481093#0" to="56479938#1"/>
    <trip id="veh110" type="veh_passenger" depart="1172.05" departLane="best" from="198407008#1" to="-84647565#5"/>
    <trip id="veh111" type="veh_passenger" depart="1182.70" departLane="best" from="97093003#2" to="97093003#2"/>
    <trip id="veh112" type="veh_passenger" depart="1193.36" departLane="best" from="198407008#1" to="-529267361#0"/>
    <trip id="veh113" type="veh_passenger" depart="1204.01" departLane="best" from="-56479938#0" to="84647565#12"/>
    <trip id="veh114" type="veh_passenger" depart="1214.67" departLane="best" from="-84647549" to="-48719079#0"/>
    <trip id="veh115" type="veh_passenger" depart="1225.32" departLane="best" from="76227969#1" to="-48719120#1"/>
    <trip id="veh116" type="veh_passenger" depart="1235.98" departLane="best" from="28822164#4" to="97093003#0"/>
    <trip id="veh117" type="veh_passenger" depart="1246.63" departLane="best" from="-299066707" to="-141890673#1"/>
    <trip id="veh118" type="veh_passenger" depart="1257.29" departLane="best" from="56481099" to="-56480695#0"/>
    <trip id="veh119" type="veh_passenger" depart="1267.94" departLane="best" from="48719079#2" to="84647565#13"/>
    <trip id="veh120" type="veh_passenger" depart="1278.60" departLane="best" from="-299065990#0" to="-28822164#6"/>
    <trip id="veh122" type="veh_passenger" depart="1299.91" departLane="best" from="-56479938#2" to="-28822164#3"/>
    <trip id="veh123" type="veh_passenger" depart="1310.56" departLane="best" from="529267364#1" to="-48719120#1"/>
    <trip id="veh124" type="veh_passenger" depart="1321.22" departLane="best" from="-97093003#1" to="-84647561#3"/>
    <trip id="veh125" type="veh_passenger" depart="1331.87" departLane="best" from="76227969#3" to="-28822164#1"/>
    <trip id="veh126" type="veh_passenger" depart="1342.53" departLane="best" from="84647565#0" to="-56479938#2"/>
    <trip id="veh127" type="veh_passenger" depart="1353.18" departLane="best" from="141890673#0" to="56480070#0"/>
    <trip id="veh129" type="veh_passenger" depart="1374.49" departLane="best" from="-84647565#1" to="-141890673#1"/>
    <trip id="veh130" type="veh_passenger" depart="1385.15" departLane="best" from="198407008#0" to="-84647556#0"/>
    <trip id="veh131" type="veh_passenger" depart="1395.80" departLane="best" from="84647561#0" to="141890673#9"/>
    <trip id="veh132" type="veh_passenger" depart="1406.46" departLane="best" from="76227969#1" to="-226900712"/>
    <trip id="veh133" type="veh_passenger" depart="1417.11" departLane="best" from="-299066707" to="-28822164#8"/>
    <trip id="veh134" type="veh_passenger" depart="1427.77" departLane="best" from="-56480695#3" to="84647561#0"/>
    <trip id="veh135" type="veh_passenger" depart="1438.42" departLane="best" from="56480695#2" to="84647549"/>
    <trip id="veh136" type="veh_passenger" depart="1449.08" departLane="best" from="-84647561#0" to="-529267361#0"/>
    <trip id="veh137" type="veh_passenger" depart="1459.73" departLane="best" from="-56479626" to="-28822164#3"/>
    <trip id="veh138" type="veh_passenger" depart="1470.39" departLane="best" from="56480140" to="-84647556#0"/>
    <trip id="veh139" type="veh_passenger" depart="1481.04" departLane="best" from="-84647561#3" to="-28822164#6"/>
    <trip id="veh140" type="veh_passenger" depart="1491.70" departLane="best" from="198407005#1" to="84647565#1"/>
    <trip id="veh141" type="veh_passenger" depart="1502.35" departLane="best" from="84647550#0" to="84647565#8"/>
    <trip id="veh142" type="veh_passenger" depart="1513.01" departLane="best" from="-56481093#1" to="-84647556#0"/>
    <trip id="veh143" type="veh_passenger" depart="1523.66" departLane="best" from="-141890673#5" to="56479626"/>
    <trip id="veh144" type="veh_passenger" depart="1534.32" departLane="best" from="717505047" to="-84647565#1"/>
    <trip id="veh145" type="veh_passenger" depart="1544.97" departLane="best" from="56480695#3" to="84647549"/>
    <trip id="veh146" type="veh_passenger" depart="1555.63" departLane="best" from="-56481093#1" to="-56479938#1"/>
    <trip id="veh147" type="veh_passenger" depart="1566.28" departLane="best" from="84647550#1" to="82860504#1"/>
    <trip id="veh148" type="veh_passenger" depart="1576.94" departLane="best" from="529267364#0" to="-56481099"/>
    <trip id="veh149" type="veh_passenger" depart="1587.59" departLane="best" from="-84647565#5" to="-56480695#3"/>
    <trip id="veh150" type="veh_passenger" depart="1598.25" departLane="best" from="56480695#2" to="-529267364#1"/>
    <trip id="veh151" type="veh_passenger" depart="1608.90" departLane="best" from="-141890673#5" to="-48719080#1"/>
    <trip id="veh152" type="veh_passenger" depart="1619.56" departLane="best" from="-84647565#7" to="-56479938#5"/>
    <trip id="veh153" type="veh_passenger" depart="1630.21" departLane="best" from="-84647565#9" to="-141890673#7"/>
    <trip id="veh154" type="veh_passenger" depart="1640.87" departLane="best" from="-84647565#13" to="-28822164#6"/>
    <trip id="veh155" type="veh_passenger" depart="1651.52" departLane="best" from="-84647565#7" to="-48719079#4"/>
    <trip id="veh156" type="veh_passenger" depart="1662.18" departLane="best" from="84647565#5" to="56479938#0"/>
    <trip id="veh157" type="veh_passenger" depart="1672.83" departLane="best" from="28822164#4" to="84647565#12"/>
    <trip id="veh158" type="veh_passenger" depart="1683.49" departLane="best" from="56477984" to="-56481093#0"/>
    <trip id="veh159" type="veh_passenger" depart="1694.14" departLane="best" from="84647556#0" to="-198407005#0"/>
    <trip id="veh160" type="veh_passenger" depart="1704.80" departLane="best" from="-56479757" to="-529267361#1"/>
    <trip id="veh161" type="veh_passenger" depart="1715.45" departLane="best" from="141890673#0" to="84647565#0"/>
    <trip id="veh162" type="veh_passenger" depart="1726.11" departLane="best" from="-141890673#8" to="-529267364#1"/>
    <trip id="veh163" type="veh_passenger" depart="1736.76" departLane="best" from="-82860504#1" to="-198407005#0"/>
    <trip id="veh164" type="veh_passenger" depart="1747.42" departLane="best" from="48719079#2" to="-717505047"/>
    <trip id="veh165" type="veh_passenger" depart="1758.07" departLane="best" from="-56481093#0" to="82860504#0"/>
    <trip id="veh166" type="veh_passenger" depart="1768.73" departLane="best" from="529267364#1" to="-56480695#2"/>
    <trip id="veh167" type="veh_passenger" depart="1779.38" departLane="best" from="-56480695#3" to="84647561#5"/>
    <trip id="veh168" type="veh_passenger" depart="1790.04" departLane="best" from="84647561#3" to="-56480695#0"/>
    <trip id="veh169" type="veh_passenger" depart="1800.69" departLane="best" from="28822164#8" to="-84647565#0"/>
    <trip id="veh170" type="veh_passenger" depart="1811.35" departLane="best" from="-84647565#13" to="-48719079#4"/>
    <trip id="veh171" type="veh_passenger" depart="1822.00" departLane="best" from="-84647561#0" to="-28822164#4"/>
    <trip id="veh172" type="veh_passenger" depart="1832.66" departLane="best" from="56480695#2" to="141890673#9"/>
    <trip id="veh173" type="veh_passenger" depart="1843.31" departLane="best" from="141890673#0" to="-56480070#0"/>
    <trip id="veh174" type="veh_passenger" depart="1853.97" departLane="best" from="-84647565#12" to="-198407005#0"/>
    <trip id="veh175" type="veh_passenger" depart="1864.62" departLane="best" from="-299066707" to="84647565#7"/>
    <trip id="veh176" type="veh_passenger" depart="1875.28" departLane="best" from="-84647565#2" to="-529267361#0"/>
    <trip id="veh177" type="veh_passenger" depart="1885.93" departLane="best" from="-84647565#8" to="-84647561#0"/>
    <trip id="veh178" type="veh_passenger" depart="1896.58" departLane="best" from="56480695#2" to="-48719079#3"/>
    <trip id="veh179" type="veh_passenger" depart="1907.24" departLane="best" from="56481099" to="56479938#0"/>
    <trip id="veh180" type="veh_passenger" depart="1917.89" departLane="best" from="48719079#4" to="-529267364#0"/>
    <trip id="veh181" type="veh_passenger" depart="1928.55" departLane="best" from="48719120#0" to="-141890673#5"/>
    <trip id="veh182" type="veh_passenger" depart="1939.20" departLane="best" from="56479503" to="84647565#9"/>
    <trip id="veh183" type="veh_passenger" depart="1949.86" departLane="best" from="-82860504#0" to="-198407005#0"/>
    <trip id="veh184" type="veh_passenger" depart="1960.51" departLane="best" from="-84647561#7" to="-28822164#8"/>
    <trip id="veh185" type="veh_passenger" depart="1971.17" departLane="best" from="48719080#1" to="-48719120#0"/>
    <trip id="veh186" type="veh_passenger" depart="1981.82" departLane="best" from="-97093003#2" to="-56479503"/>
    <trip id="veh187" type="veh_passenger" depart="1992.48" departLane="best" from="48719079#1" to="-141890673#0"/>
    <trip id="veh188" type="veh_passenger" depart="2003.13" departLane="best" from="28822164#3" to="-84647565#1"/>
    <trip id="veh189" type="veh_passenger" depart="2013.79" departLane="best" from="48719079#4" to="84647565#4"/>
    <trip id="veh190" type="veh_passenger" depart="2024.44" departLane="best" from="141890673#4" to="141890673#9"/>
    <trip id="veh191" type="veh_passenger" depart="2035.10" departLane="best" from="56479626" to="82860504#0"/>
    <trip id="veh192" type="veh_passenger" depart="2045.75" departLane="best" from="-84647565#4" to="-56480695#3"/>
    <trip id="veh193" type="veh_passenger" depart="2056.41" departLane="best" from="48719079#3" to="97093003#0"/>
    <trip id="veh194" type="veh_passenger" depart="2067.06" departLane="best" from="28822164#1" to="84647565#3"/>
    <trip id="veh195" type="veh_passenger" depart="2077.72" departLane="best" from="84647556#1" to="-28822164#4"/>
    <trip id="veh196" type="veh_passenger" depart="2088.37" departLane="best" from="529267364#1" to="-141890673#1"/>
    <trip id="veh197" type="veh_passenger" depart="2099.03" departLane="best" from="76227969#1" to="141890673#9"/>
    <trip id="veh198" type="veh_passenger" depart="2109.68" departLane="best" from="84647556#2" to="56479757"/>
    <trip id="veh199" type="veh_passenger" depart="2120.34" departLane="best" from="-84647565#9" to="-56479757"/>
    <trip id="veh200" type="veh_passenger" depart="2130.99" departLane="best" from="56479938#5" to="141890673#5"/>
    <trip id="veh201" type="veh_passenger" depart="2141.65" departLane="best" from="28822164#7" to="56479938#2"/>
    <trip id="veh202" type="veh_passenger" depart="2152.30" departLane="best" from="198407008#0" to="-56480070#0"/>
    <trip id="veh203" type="veh_passenger" depart="2162.96" departLane="best" from="-56479938#2" to="56481093#1"/>
    <trip id="veh204" type="veh_passenger" depart="2173.61" departLane="best" from="141890673#8" to="-299065990#1"/>
    <trip id="veh205" type="veh_passenger" depart="2184.27" departLane="best" from="529267364#1" to="-48719080#1"/>
    <trip id="veh207" type="veh_passenger" depart="2205.58" departLane="best" from="84647561#5" to="141890673#9"/>
    <trip id="veh208" type="veh_passenger" depart="2216.23" departLane="best" from="84647561#7" to="-48719120#1"/>
    <trip id="veh209" type="veh_passenger" depart="2226.89" departLane="best" from="84647565#0" to="-84647561#3"/>
    <trip id="veh210" type="veh_passenger" depart="2237.54" departLane="best" from="226900712" to="-48719120#0"/>
    <trip id="veh211" type="veh_passenger" depart="2248.20" departLane="best" from="-82860504#1" to="56479938#5"/>
    <trip id="veh212" type="veh_passenger" depart="2258.85" departLane="best" from="84647550#1" to="-141890673#1"/>
    <trip id="veh213" type="veh_passenger" depart="2269.51" departLane="best" from="-82860504#1" to="84647565#3"/>
    <trip id="veh214" type="veh_passenger" depart="2280.16" departLane="best" from="-84647565#0" to="56479938#0"/>
    <trip id="veh215" type="veh_passenger" depart="2290.82" departLane="best" from="-141890673#9" to="28822164#2"/>
    <trip id="veh216" type="veh_passenger" depart="2301.47" departLane="best" from="529267364#0" to="529267361#1"/>
    <trip id="veh217" type="veh_passenger" depart="2312.13" departLane="best" from="-84647565#13" to="-141890673#6"/>
    <trip id="veh218" type="veh_passenger" depart="2322.78" departLane="best" from="-84647561#3" to="-48719079#2"/>
    <trip id="veh219" type="veh_passenger" depart="2333.44" departLane="best" from="-84647565#7" to="-28822164#8"/>
    <trip id="veh220" type="veh_passenger" depart="2344.09" departLane="best" from="-28822164#7" to="141890673#5"/>
    <trip id="veh222" type="veh_passenger" depart="2365.40" departLane="best" from="-141890673#5" to="299065990#1"/>
    <trip id="veh223" type="veh_passenger" depart="2376.06" departLane="best" from="-299065990#1" to="-84647565#5"/>
    <trip id="veh224" type="veh_passenger" depart="2386.71" departLane="best" from="-141890673#9" to="-84647550#1"/>
    <trip id="veh225" type="veh_passenger" depart="2397.37" departLane="best" from="84647550#2" to="-56481099"/>
    <trip id="veh226" type="veh_passenger" depart="2408.02" departLane="best" from="-56479938#2" to="-84647550#1"/>
    <trip id="veh227" type="veh_passenger" depart="2418.68" departLane="best" from="56479626" to="-226900712"/>
    <trip id="veh228" type="veh_passenger" depart="2429.33" departLane="best" from="141890673#4" to="141890673#8"/>
    <trip id="veh229" type="veh_passenger" depart="2439.99" departLane="best" from="-97093003#2" to="-76227969#2"/>
    <trip id="veh230" type="veh_passenger" depart="2450.64" departLane="best" from="84647565#3" to="-48719120#0"/>
    <trip id="veh231" type="veh_passenger" depart="2461.30" departLane="best" from="-141890673#4" to="299066707"/>
    <trip id="veh233" type="veh_passenger" depart="2482.61" departLane="best" from="48719120#0" to="56479938#5"/>
    <trip id="veh234" type="veh_passenger" depart="2493.26" departLane="best" from="48719079#2" to="-28822164#3"/>
    <trip id="veh235" type="veh_passenger" depart="2503.92" departLane="best" from="-56479938#0" to="-28822164#6"/>
    <trip id="veh236" type="veh_passenger" depart="2514.57" departLane="best" from="717505047" to="-84647565#5"/>
    <trip id="veh237" type="veh_passenger" depart="2525.23" departLane="best" from="-28822164#4" to="141890673#5"/>
    <trip id="veh238" type="veh_passenger" depart="2535.88" departLane="best" from="-56481093#0" to="-48719079#4"/>
    <trip id="veh239" type="veh_passenger" depart="2546.54" departLane="best" from="84647565#4" to="-84647561#0"/>
    <trip id="veh240" type="veh_passenger" depart="2557.19" departLane="best" from="529267364#0" to="-198407008#0"/>
    <trip id="veh241" type="veh_passenger" depart="2567.85" departLane="best" from="48719080#1" to="-28822164#8"/>
    <trip id="veh242" type="veh_passenger" depart="2578.50" departLane="best" from="28822164#3" to="56480070#0"/>
    <trip id="veh243" type="veh_passenger" depart="2589.16" departLane="best" from="-82860504#0" to="28822164#2"/>
    <trip id="veh244" type="veh_passenger" depart="2599.81" departLane="best" from="-28822164#7" to="97093003#0"/>
    <trip id="veh245" type="veh_passenger" depart="2610.47" departLane="best" from="84647565#1" to="84647549"/>
    <trip id="veh246" type="veh_passenger" depart="2621.12" departLane="best" from="141890673#1" to="-76227969#1"/>
    <trip id="veh247" type="veh_passenger" depart="2631.78" departLane="best" from="-82860504#0" to="-717505047"/>
    <trip id="veh248" type="veh_passenger" depart="2642.43" departLane="best" from="28822164#3" to="84647565#5"/>
    <trip id="veh249" type="veh_passenger" depart="2653.09" departLane="best" from="529267361#1" to="84647565#13"/>
    <trip id="veh250" type="veh_passenger" depart="2663.74" departLane="best" from="56479503" to="-84647565#5"/>
    <trip id="veh251" type="veh_passenger" depart="2674.40" departLane="best" from="-56479938#1" to="56481093#1"/>
    <trip id="veh252" type="veh_passenger" depart="2685.05" departLane="best" from="141890673#8" to="97093003#0"/>
    <trip id="veh253" type="veh_passenger" depart="2695.71" departLane="best" from="-84647565#13" to="-56479503"/>
    <trip id="veh254" type="veh_passenger" depart="2706.36" departLane="best" from="-56479938#1" to="82860504#0"/>