<?xml version="1.0" encoding="UTF-8"?>

<!-- generated on 2024-04-30 09:37:30 by Eclipse SUMO netedit Version 1.19.0
<configuration xmlns:xsi="http://www.w3.org/2001/XMLSchema-instance" xsi:noNamespaceSchemaLocation="http://sumo.dlr.de/xsd/neteditConfiguration.xsd">

    <input>
        <sumocfg-file value="C:\WINDOWS\system32\2024-04-30-09-09-43\osm.sumocfg"/>
        <additional-files value="C:\WINDOWS\system32\2024-04-30-09-09-43\osm.poly.xml.gz"/>
        <route-files value="C:\WINDOWS\system32\2024-04-30-09-09-43\osm.passenger.trips.xml"/>
        <sumo-net-file value="C:\Users\psxda10\30april\osm.net.xml"/>
    </input>

    <output>
        <output-file value="C:\Users\psxda10\30april\osm.net.xml"/>
        <output.street-names value="true"/>
    </output>

    <processing>
        <geometry.min-radius.fix.railways value="false"/>
        <geometry.max-grade.fix value="false"/>
        <offset.disable-normalization value="true"/>
        <lefthand value="1"/>
    </processing>

    <junctions>
        <no-turnarounds value="true"/>
        <junctions.corner-detail value="5"/>
        <junctions.limit-turn-speed value="5.50"/>
        <rectangular-lane-cut value="0"/>
    </junctions>

    <pedestrian>
        <walkingareas value="0"/>
    </pedestrian>

    <netedit>
        <ignore.routeelements value="false"/>
    </netedit>

</configuration>
-->

<net version="1.16" junctionCornerDetail="5" lefthand="true" limitTurnSpeed="5.50" xmlns:xsi="http://www.w3.org/2001/XMLSchema-instance" xsi:noNamespaceSchemaLocation="http://sumo.dlr.de/xsd/net_file.xsd">

    <location netOffset="-580472.61,-5907694.14" convBoundary="0.00,0.00,3467.10,2629.85" origBoundary="-1.792041,53.311874,-1.739737,53.335712" projParameter="+proj=utm +zone=30 +ellps=WGS84 +datum=WGS84 +units=m +no_defs"/>

    <type id="highway.footway" priority="1" numLanes="1" speed="2.78" allow="pedestrian" oneway="1" width="2.00"/>
    <type id="highway.path" priority="1" numLanes="1" speed="5.56" allow="pedestrian bicycle" oneway="0" width="2.00"/>
    <type id="highway.residential" priority="3" numLanes="1" speed="13.89" disallow="tram rail_urban rail rail_electric rail_fast ship" oneway="0"/>
    <type id="highway.secondary" priority="11" numLanes="1" speed="27.78" disallow="tram rail_urban rail rail_electric rail_fast ship" oneway="0"/>
    <type id="highway.service" priority="1" numLanes="1" speed="5.56" allow="pedestrian delivery bicycle" oneway="0"/>
    <type id="highway.steps" priority="1" numLanes="1" speed="1.39" allow="pedestrian" oneway="1" width="2.00"/>
    <type id="highway.track" priority="1" numLanes="1" speed="5.56" allow="pedestrian motorcycle moped bicycle" oneway="0"/>
    <type id="highway.unclassified" priority="4" numLanes="1" speed="13.89" disallow="tram rail_urban rail rail_electric rail_fast ship" oneway="0"/>

    <edge id=":10202589375_0" function="internal">
        <lane id=":10202589375_0_0" index="0" allow="pedestrian bicycle" speed="5.56" length="0.10" shape="2873.94,2060.42 2873.94,2060.42"/>
    </edge>
    <edge id=":10202589375_1" function="internal">
        <lane id=":10202589375_1_0" index="0" allow="pedestrian delivery bicycle" speed="3.65" length="2.34" shape="2873.94,2060.42 2873.91,2061.87 2874.33,2062.65"/>
    </edge>
    <edge id=":10202589375_4" function="internal">
        <lane id=":10202589375_4_0" index="0" allow="pedestrian delivery bicycle" speed="3.65" length="2.34" shape="2874.33,2062.65 2875.22,2062.78 2876.56,2062.26"/>
    </edge>
    <edge id=":10202589375_2" function="internal">
        <lane id=":10202589375_2_0" index="0" allow="pedestrian bicycle" speed="5.56" length="0.10" shape="2876.56,2062.26 2876.56,2062.26"/>
    </edge>
    <edge id=":10202589375_3" function="internal">
        <lane id=":10202589375_3_0" index="0" allow="pedestrian motorcycle moped bicycle" speed="3.65" length="2.34" shape="2876.56,2062.26 2876.59,2060.81 2876.17,2060.03"/>
    </edge>
    <edge id=":10202589375_5" function="internal">
        <lane id=":10202589375_5_0" index="0" allow="pedestrian motorcycle moped bicycle" speed="3.65" length="2.34" shape="2876.17,2060.03 2875.28,2059.90 2873.94,2060.42"/>
    </edge>
    <edge id=":10908355236_0" function="internal">
        <lane id=":10908355236_0_0" index="0" allow="pedestrian bicycle" speed="5.56" length="4.61" width="2.00" shape="3257.96,1681.33 3258.38,1680.04 3258.59,1679.11 3258.58,1678.17 3258.35,1676.83"/>
    </edge>
    <edge id=":10908355236_1" function="internal">
        <lane id=":10908355236_1_0" index="0" allow="pedestrian bicycle" speed="2.89" length="2.64" width="2.00" shape="3257.96,1681.33 3257.72,1680.46 3257.33,1680.06 3256.77,1680.14 3256.28,1680.52"/>
    </edge>
    <edge id=":10908355236_4" function="internal">
        <lane id=":10908355236_4_0" index="0" allow="pedestrian bicycle" speed="2.89" length="0.28" width="2.00" shape="3256.28,1680.52 3256.06,1680.69"/>
    </edge>
    <edge id=":10908355236_2" function="internal">
        <lane id=":10908355236_2_0" index="0" allow="pedestrian bicycle" speed="3.95" length="3.20" width="2.00" shape="3255.79,1677.80 3256.23,1678.10 3256.43,1678.68 3256.37,1679.54 3256.06,1680.69"/>
    </edge>
    <edge id=":10908355236_3" function="internal">
        <lane id=":10908355236_3_0" index="0" allow="pedestrian bicycle" speed="3.89" length="1.70" width="2.00" shape="3255.79,1677.80 3256.79,1678.52 3257.25,1678.57"/>
    </edge>
    <edge id=":10908355236_5" function="internal">
        <lane id=":10908355236_5_0" index="0" allow="pedestrian bicycle" speed="3.89" length="2.30" width="2.00" shape="3257.25,1678.57 3257.55,1678.60 3258.07,1678.03 3258.35,1676.83"/>
    </edge>
    <edge id=":10908483212_0" function="internal">
        <lane id=":10908483212_0_0" index="0" allow="pedestrian delivery bicycle" speed="3.65" length="4.67" shape="2872.96,1983.32 2873.65,1984.58 2874.41,1985.05 2875.24,1984.73 2876.14,1983.60"/>
    </edge>
    <edge id=":11500962034_0" function="internal">
        <lane id=":11500962034_0_0" index="0" allow="pedestrian motorcycle moped bicycle" speed="5.56" length="6.92" shape="1439.31,1430.43 1435.82,1436.40"/>
    </edge>
    <edge id=":11500962034_1" function="internal">
        <lane id=":11500962034_1_0" index="0" allow="pedestrian motorcycle moped bicycle" speed="3.65" length="1.44" shape="1439.31,1430.43 1439.45,1431.86"/>
    </edge>
    <edge id=":11500962034_4" function="internal">
        <lane id=":11500962034_4_0" index="0" allow="pedestrian motorcycle moped bicycle" speed="3.65" length="3.23" shape="1439.45,1431.86 1439.97,1432.59 1440.87,1432.61 1442.14,1431.93"/>
    </edge>
    <edge id=":11500962034_2" function="internal">
        <lane id=":11500962034_2_0" index="0" allow="pedestrian motorcycle moped bicycle" speed="5.56" length="7.20" shape="1438.51,1438.14 1442.14,1431.93"/>
    </edge>
    <edge id=":11500962034_3" function="internal">
        <lane id=":11500962034_3_0" index="0" allow="pedestrian motorcycle moped bicycle" speed="3.65" length="1.44" shape="1438.51,1438.14 1438.48,1436.70"/>
    </edge>
    <edge id=":11500962034_5" function="internal">
        <lane id=":11500962034_5_0" index="0" allow="pedestrian motorcycle moped bicycle" speed="3.65" length="3.23" shape="1438.48,1436.70 1438.03,1435.93 1437.14,1435.83 1435.82,1436.40"/>
    </edge>
    <edge id=":11676949285_0" function="internal">
        <lane id=":11676949285_0_0" index="0" allow="pedestrian motorcycle moped bicycle" speed="3.65" length="4.67" shape="2590.26,659.81 2589.72,658.47 2589.02,657.91 2588.16,658.14 2587.12,659.15"/>
    </edge>
    <edge id=":11676949291_0" function="internal">
        <lane id=":11676949291_0_0" index="0" allow="pedestrian motorcycle moped bicycle" speed="5.56" length="6.98" shape="2582.13,676.36 2580.45,677.57 2578.82,678.30 2577.25,678.54 2575.74,678.30"/>
    </edge>
    <edge id=":11676949291_1" function="internal">
        <lane id=":11676949291_1_0" index="0" allow="pedestrian motorcycle moped bicycle" speed="3.65" length="4.67" shape="2582.13,676.36 2581.73,677.74 2581.94,678.61 2582.77,678.97 2584.20,678.80"/>
    </edge>
    <edge id=":11676949291_2" function="internal">
        <lane id=":11676949291_2_0" index="0" allow="pedestrian motorcycle moped bicycle" speed="5.56" length="10.23" shape="2574.75,681.34 2577.09,681.75 2579.44,681.46 2581.81,680.48 2584.20,678.80"/>
    </edge>
    <edge id=":11676949291_3" function="internal">
        <lane id=":11676949291_3_0" index="0" allow="pedestrian motorcycle moped bicycle" speed="3.65" length="4.67" shape="2574.75,681.34 2576.14,680.95 2576.76,680.31 2576.63,679.43 2575.74,678.30"/>
    </edge>
    <edge id=":1259752838_0" function="internal">
        <lane id=":1259752838_0_0" index="0" disallow="tram rail_urban rail rail_electric rail_fast ship" speed="3.65" length="4.67" shape="3465.63,1392.91 3466.85,1393.69 3467.74,1393.74 3468.31,1393.05 3468.57,1391.63"/>
    </edge>
    <edge id=":1553007600_0" function="internal">
        <lane id=":1553007600_0_0" index="0" disallow="tram rail_urban rail rail_electric rail_fast ship" speed="3.65" length="4.67" shape="2090.56,167.45 2089.65,166.34 2088.81,166.02 2088.06,166.49 2087.38,167.77"/>
    </edge>
    <edge id=":1554899151_0" function="internal">
        <lane id=":1554899151_0_0" index="0" allow="pedestrian motorcycle moped bicycle" speed="3.65" length="4.67" shape="205.61,1716.46 204.26,1716.96 203.68,1717.65 203.89,1718.52 204.87,1719.58"/>
    </edge>
    <edge id=":1701150546_0" function="internal">
        <lane id=":1701150546_0_0" index="0" disallow="tram rail_urban rail rail_electric rail_fast ship" speed="13.89" length="5.18" shape="3284.02,1692.99 3280.67,1696.94"/>
    </edge>
    <edge id=":1701150546_1" function="internal">
        <lane id=":1701150546_1_0" index="0" disallow="tram rail_urban rail rail_electric rail_fast ship" speed="13.89" length="5.42" shape="3283.05,1699.08 3286.56,1694.95"/>
    </edge>
    <edge id=":1701154052_0" function="internal">
        <lane id=":1701154052_0_0" index="0" disallow="tram rail_urban rail rail_electric rail_fast ship" speed="13.89" length="9.96" shape="3117.81,1578.34 3114.98,1577.42 3112.74,1577.21 3110.82,1576.63 3108.95,1574.65"/>
    </edge>
    <edge id=":1701154052_1" function="internal">
        <lane id=":1701154052_1_0" index="0" disallow="tram rail_urban rail rail_electric rail_fast ship" speed="7.28" length="19.43" shape="3117.81,1578.34 3112.81,1576.64 3110.31,1577.81 3110.32,1581.84 3112.85,1588.74"/>
    </edge>
    <edge id=":1701154052_2" function="internal">
        <lane id=":1701154052_2_0" index="0" disallow="tram rail_urban rail rail_electric rail_fast ship" speed="4.00" length="6.07" shape="3117.81,1578.34 3116.53,1579.70 3116.26,1580.83 3117.00,1581.73 3118.75,1582.39"/>
    </edge>
    <edge id=":1701154052_3" function="internal">
        <lane id=":1701154052_3_0" index="0" disallow="tram rail_urban rail rail_electric rail_fast ship" speed="5.45" length="10.12" shape="3115.76,1587.42 3114.51,1583.94 3114.60,1581.94 3116.01,1581.42 3118.75,1582.39"/>
    </edge>
    <edge id=":1701154052_4" function="internal">
        <lane id=":1701154052_4_0" index="0" disallow="tram rail_urban rail rail_electric rail_fast ship" speed="13.89" length="14.49" shape="3115.76,1587.42 3114.20,1584.10 3112.59,1580.91 3110.85,1577.79 3108.95,1574.65"/>
    </edge>
    <edge id=":1701154052_5" function="internal">
        <lane id=":1701154052_5_0" index="0" disallow="tram rail_urban rail rail_electric rail_fast ship" speed="3.65" length="1.44" shape="3115.76,1587.42 3114.54,1586.66"/>
    </edge>
    <edge id=":1701154052_9" function="internal">
        <lane id=":1701154052_9_0" index="0" disallow="tram rail_urban rail rail_electric rail_fast ship" speed="3.65" length="3.23" shape="3114.54,1586.66 3113.64,1586.63 3113.08,1587.32 3112.85,1588.74"/>
    </edge>
    <edge id=":1701154052_6" function="internal">
        <lane id=":1701154052_6_0" index="0" disallow="tram rail_urban rail rail_electric rail_fast ship" speed="13.89" length="14.04" shape="3106.25,1576.37 3108.12,1579.44 3109.78,1582.43 3111.32,1585.48 3112.85,1588.74"/>
    </edge>
    <edge id=":1701154052_7" function="internal">
        <lane id=":1701154052_7_0" index="0" disallow="tram rail_urban rail rail_electric rail_fast ship" speed="13.89" length="2.94" shape="3106.25,1576.37 3108.35,1578.43"/>
    </edge>
    <edge id=":1701154052_8" function="internal">
        <lane id=":1701154052_8_0" index="0" disallow="tram rail_urban rail rail_electric rail_fast ship" speed="3.65" length="1.44" shape="3106.25,1576.37 3107.57,1576.95"/>
    </edge>
    <edge id=":1701154052_10" function="internal">
        <lane id=":1701154052_10_0" index="0" disallow="tram rail_urban rail rail_electric rail_fast ship" speed="13.89" length="11.19" shape="3108.35,1578.43 3108.71,1578.77 3111.83,1580.12 3115.29,1581.09 3118.75,1582.39"/>
    </edge>
    <edge id=":1701154052_11" function="internal">
        <lane id=":1701154052_11_0" index="0" disallow="tram rail_urban rail rail_electric rail_fast ship" speed="3.65" length="3.23" shape="3107.57,1576.95 3108.46,1576.86 3108.92,1576.09 3108.95,1574.65"/>
    </edge>
    <edge id=":1701154059_0" function="internal">
        <lane id=":1701154059_0_0" index="0" disallow="tram rail_urban rail rail_electric rail_fast ship" speed="6.13" length="6.44" shape="3238.30,1678.73 3237.66,1680.54 3236.74,1681.84 3235.54,1682.63 3234.07,1682.89"/>
    </edge>
    <edge id=":1701154059_1" function="internal">
        <lane id=":1701154059_1_0" index="0" allow="pedestrian bicycle" speed="6.71" length="3.69" width="2.00" shape="3238.30,1678.73 3237.80,1682.38"/>
    </edge>
    <edge id=":1701154059_7" function="internal">
        <lane id=":1701154059_7_0" index="0" allow="pedestrian bicycle" speed="6.71" length="7.52" width="2.00" shape="3237.80,1682.38 3238.32,1685.02 3239.85,1686.63 3242.39,1687.23"/>
    </edge>
    <edge id=":1701154059_2" function="internal">
        <lane id=":1701154059_2_0" index="0" allow="pedestrian bicycle" speed="4.68" length="5.28" width="2.00" shape="3243.07,1685.25 3241.80,1684.97 3241.03,1684.24 3240.74,1683.04 3240.95,1681.38"/>
    </edge>
    <edge id=":1701154059_3" function="internal">
        <lane id=":1701154059_3_0" index="0" allow="pedestrian bicycle" speed="9.72" length="9.40" width="2.00" shape="3243.07,1685.25 3240.36,1684.82 3238.57,1684.01 3236.79,1683.23 3234.07,1682.89"/>
    </edge>
    <edge id=":1701154059_4" function="internal">
        <lane id=":1701154059_4_0" index="0" allow="pedestrian bicycle" speed="2.93" length="3.06" width="2.00" shape="3243.07,1685.25 3242.16,1685.49 3241.74,1685.89 3241.81,1686.48 3242.39,1687.23"/>
    </edge>
    <edge id=":1701154059_5" function="internal">
        <lane id=":1701154059_5_0" index="0" allow="pedestrian bicycle" speed="9.72" length="8.40" width="2.00" shape="3234.08,1686.09 3236.56,1686.25 3238.24,1686.61 3239.91,1687.00 3242.39,1687.23"/>
    </edge>
    <edge id=":1701154059_6" function="internal">
        <lane id=":1701154059_6_0" index="0" disallow="tram rail_urban rail rail_electric rail_fast ship" speed="7.15" length="9.07" shape="3234.08,1686.09 3236.67,1685.79 3238.67,1684.90 3240.10,1683.43 3240.95,1681.38"/>
    </edge>
    <edge id=":1701154077_0" function="internal">
        <lane id=":1701154077_0_0" index="0" allow="pedestrian bicycle" speed="9.72" length="7.52" width="2.00" shape="3246.38,1672.78 3244.32,1671.95 3242.97,1671.21 3241.82,1670.18 3240.39,1668.49"/>
    </edge>
    <edge id=":1701154077_1" function="internal">
        <lane id=":1701154077_1_0" index="0" allow="pedestrian bicycle" speed="6.27" length="9.59" width="2.00" shape="3246.38,1672.78 3243.63,1672.10 3241.47,1672.43 3239.91,1673.76 3238.93,1676.08"/>
    </edge>
    <edge id=":1701154077_2" function="internal">
        <lane id=":1701154077_2_0" index="0" allow="pedestrian bicycle" speed="2.89" length="2.92" width="2.00" shape="3246.38,1672.78 3245.50,1672.98 3245.09,1673.35 3245.14,1673.91 3245.66,1674.65"/>
    </edge>
    <edge id=":1701154077_3" function="internal">
        <lane id=":1701154077_3_0" index="0" allow="pedestrian bicycle" speed="4.69" length="4.61" width="2.00" shape="3242.15,1676.38 3242.63,1675.21 3243.37,1674.53 3244.38,1674.34 3245.66,1674.65"/>
    </edge>
    <edge id=":1701154077_4" function="internal">
        <lane id=":1701154077_4_0" index="0" disallow="tram rail_urban rail rail_electric rail_fast ship" speed="8.65" length="1.60" shape="3242.15,1676.38 3242.36,1674.79"/>
    </edge>
    <edge id=":1701154077_7" function="internal">
        <lane id=":1701154077_7_0" index="0" disallow="tram rail_urban rail rail_electric rail_fast ship" speed="8.65" length="6.78" shape="3242.36,1674.79 3242.44,1674.23 3242.24,1672.20 3241.56,1670.29 3240.39,1668.49"/>
    </edge>
    <edge id=":1701154077_5" function="internal">
        <lane id=":1701154077_5_0" index="0" disallow="tram rail_urban rail rail_electric rail_fast ship" speed="7.34" length="5.88" shape="3237.90,1670.50 3238.65,1671.70 3239.07,1673.02 3239.17,1674.49 3238.93,1676.08"/>
    </edge>
    <edge id=":1701154077_6" function="internal">
        <lane id=":1701154077_6_0" index="0" allow="pedestrian bicycle" speed="9.72" length="9.00" width="2.00" shape="3237.90,1670.50 3239.71,1672.37 3241.28,1673.26 3243.11,1673.81 3245.66,1674.65"/>
    </edge>
    <edge id=":2085391536_0" function="internal">
        <lane id=":2085391536_0_0" index="0" allow="pedestrian motorcycle moped bicycle" speed="3.65" length="4.67" shape="1603.84,541.19 1603.02,540.01 1602.21,539.62 1601.42,540.03 1600.64,541.25"/>
    </edge>
    <edge id=":2191084979_0" function="internal">
        <lane id=":2191084979_0_0" index="0" disallow="tram rail_urban rail rail_electric rail_fast ship" speed="13.89" length="7.10" shape="3112.86,1481.61 3108.86,1487.49"/>
    </edge>
    <edge id=":2191084979_1" function="internal">
        <lane id=":2191084979_1_0" index="0" disallow="tram rail_urban rail rail_electric rail_fast ship" speed="13.89" length="7.30" shape="3111.44,1489.38 3115.55,1483.34"/>
    </edge>
    <edge id=":2191122392_0" function="internal">
        <lane id=":2191122392_0_0" index="0" disallow="tram rail_urban rail rail_electric rail_fast ship" speed="13.89" length="5.74" shape="3148.50,1424.21 3145.50,1429.10"/>
    </edge>
    <edge id=":2191122392_1" function="internal">
        <lane id=":2191122392_1_0" index="0" disallow="tram rail_urban rail rail_electric rail_fast ship" speed="13.89" length="5.62" shape="3148.22,1430.78 3151.15,1425.99"/>
    </edge>
    <edge id=":2353927380_0" function="internal">
        <lane id=":2353927380_0_0" index="0" disallow="tram rail_urban rail rail_electric rail_fast ship" speed="22.35" length="5.09" shape="3194.38,492.32 3193.73,497.37"/>
    </edge>
    <edge id=":2353927380_1" function="internal">
        <lane id=":2353927380_1_0" index="0" disallow="tram rail_urban rail rail_electric rail_fast ship" speed="22.35" length="5.12" shape="3196.91,497.78 3197.56,492.71"/>
    </edge>
    <edge id=":2353927685_0" function="internal">
        <lane id=":2353927685_0_0" index="0" disallow="tram rail_urban rail rail_electric rail_fast ship" speed="13.89" length="4.91" shape="3154.15,1415.65 3151.48,1419.76"/>
    </edge>
    <edge id=":2353927685_1" function="internal">
        <lane id=":2353927685_1_0" index="0" disallow="tram rail_urban rail rail_electric rail_fast ship" speed="13.89" length="4.99" shape="3154.13,1421.55 3156.85,1417.37"/>
    </edge>
    <edge id=":2354984033_0" function="internal">
        <lane id=":2354984033_0_0" index="0" disallow="tram rail_urban rail rail_electric rail_fast ship" speed="13.89" length="4.91" shape="2918.04,1981.71 2913.62,1979.58"/>
    </edge>
    <edge id=":2354984033_1" function="internal">
        <lane id=":2354984033_1_0" index="0" disallow="tram rail_urban rail rail_electric rail_fast ship" speed="13.89" length="4.97" shape="2912.20,1982.45 2916.68,1984.61"/>
    </edge>
    <edge id=":2354984080_0" function="internal">
        <lane id=":2354984080_0_0" index="0" allow="pedestrian delivery bicycle" speed="3.65" length="4.67" shape="3100.16,2119.82 3101.56,2120.17 3102.42,2119.92 3102.74,2119.09 3102.52,2117.66"/>
    </edge>
    <edge id=":2354984106_0" function="internal">
        <lane id=":2354984106_0_0" index="0" allow="pedestrian motorcycle moped bicycle" speed="3.65" length="4.67" shape="2819.00,2189.37 2819.48,2190.73 2820.16,2191.31 2821.04,2191.12 2822.10,2190.15"/>
    </edge>
    <edge id=":2354984188_0" function="internal">
        <lane id=":2354984188_0_0" index="0" allow="pedestrian motorcycle moped bicycle" speed="3.65" length="4.67" shape="2950.42,2331.43 2949.51,2332.56 2949.37,2333.44 2950.00,2334.09 2951.38,2334.49"/>
    </edge>
    <edge id=":2356290708_0" function="internal">
        <lane id=":2356290708_0_0" index="0" disallow="tram rail_urban rail rail_electric rail_fast ship" speed="13.89" length="5.01" shape="2033.53,1093.01 2032.78,1088.06"/>
    </edge>
    <edge id=":2356290708_1" function="internal">
        <lane id=":2356290708_1_0" index="0" disallow="tram rail_urban rail rail_electric rail_fast ship" speed="13.89" length="5.01" shape="2029.61,1088.54 2030.37,1093.49"/>
    </edge>
    <edge id=":2356290784_0" function="internal">
        <lane id=":2356290784_0_0" index="0" disallow="tram rail_urban rail rail_electric rail_fast ship" speed="13.89" length="12.60" shape="1622.11,1224.87 1618.96,1223.83 1616.52,1222.29 1614.31,1220.30 1611.85,1217.92"/>
    </edge>
    <edge id=":2356290784_1" function="internal">
        <lane id=":2356290784_1_0" index="0" allow="pedestrian motorcycle moped bicycle" speed="8.82" length="3.69" shape="1622.11,1224.87 1618.44,1224.45"/>
    </edge>
    <edge id=":2356290784_2" function="internal">
        <lane id=":2356290784_2_0" index="0" disallow="tram rail_urban rail rail_electric rail_fast ship" speed="3.69" length="1.63" shape="1622.11,1224.87 1620.63,1225.05 1620.52,1225.13"/>
    </edge>
    <edge id=":2356290784_9" function="internal">
        <lane id=":2356290784_9_0" index="0" allow="pedestrian motorcycle moped bicycle" speed="8.82" length="9.16" shape="1618.44,1224.45 1618.23,1224.42 1615.02,1224.84 1612.46,1226.11 1610.57,1228.23"/>
    </edge>
    <edge id=":2356290784_10" function="internal">
        <lane id=":2356290784_10_0" index="0" disallow="tram rail_urban rail rail_electric rail_fast ship" speed="3.69" length="3.21" shape="1620.52,1225.13 1619.89,1225.60 1619.88,1226.53 1620.62,1227.83"/>
    </edge>
    <edge id=":2356290784_3" function="internal">
        <lane id=":2356290784_3_0" index="0" allow="pedestrian motorcycle moped bicycle" speed="7.13" length="8.13" shape="1613.29,1229.91 1614.48,1228.58 1616.10,1227.79 1618.15,1227.54 1620.62,1227.83"/>
    </edge>
    <edge id=":2356290784_4" function="internal">
        <lane id=":2356290784_4_0" index="0" allow="pedestrian motorcycle moped bicycle" speed="8.36" length="13.25" shape="1613.29,1229.91 1614.77,1226.61 1615.02,1223.51 1614.04,1220.61 1611.85,1217.92"/>
    </edge>
    <edge id=":2356290784_5" function="internal">
        <lane id=":2356290784_5_0" index="0" allow="pedestrian motorcycle moped bicycle" speed="3.65" length="4.67" shape="1613.29,1229.91 1613.24,1228.46 1612.77,1227.71 1611.87,1227.63 1610.57,1228.23"/>
    </edge>
    <edge id=":2356290784_6" function="internal">
        <lane id=":2356290784_6_0" index="0" allow="pedestrian motorcycle moped bicycle" speed="6.92" length="8.79" shape="1609.68,1220.27 1611.11,1222.04 1611.74,1223.96 1611.56,1226.03 1610.57,1228.23"/>
    </edge>
    <edge id=":2356290784_7" function="internal">
        <lane id=":2356290784_7_0" index="0" disallow="tram rail_urban rail rail_electric rail_fast ship" speed="13.89" length="13.49" shape="1609.68,1220.27 1612.25,1222.74 1614.69,1224.94 1617.36,1226.69 1620.62,1227.83"/>
    </edge>
    <edge id=":2356290784_8" function="internal">
        <lane id=":2356290784_8_0" index="0" disallow="tram rail_urban rail rail_electric rail_fast ship" speed="3.65" length="1.44" shape="1609.68,1220.27 1611.10,1220.50"/>
    </edge>
    <edge id=":2356290784_11" function="internal">
        <lane id=":2356290784_11_0" index="0" disallow="tram rail_urban rail rail_electric rail_fast ship" speed="3.65" length="3.23" shape="1611.10,1220.50 1611.94,1220.18 1612.19,1219.32 1611.85,1217.92"/>
    </edge>
    <edge id=":2356290798_0" function="internal">
        <lane id=":2356290798_0_0" index="0" disallow="tram rail_urban rail rail_electric rail_fast ship" speed="13.89" length="9.50" shape="1706.63,1244.73 1697.42,1242.39"/>
    </edge>
    <edge id=":2356290798_1" function="internal">
        <lane id=":2356290798_1_0" index="0" disallow="tram rail_urban rail rail_electric rail_fast ship" speed="13.89" length="9.50" shape="1696.64,1245.49 1705.85,1247.83"/>
    </edge>
    <edge id=":2356290815_0" function="internal">
        <lane id=":2356290815_0_0" index="0" allow="pedestrian motorcycle moped bicycle" speed="5.56" length="14.80" shape="1557.93,1272.89 1543.21,1271.35"/>
    </edge>
    <edge id=":2356290815_1" function="internal">
        <lane id=":2356290815_1_0" index="0" allow="pedestrian motorcycle moped bicycle" speed="5.56" length="14.69" shape="1557.93,1272.89 1554.27,1272.98 1551.25,1274.32 1548.87,1276.91 1547.14,1280.75"/>
    </edge>
    <edge id=":2356290815_2" function="internal">
        <lane id=":2356290815_2_0" index="0" allow="pedestrian motorcycle moped bicycle" speed="3.65" length="4.67" shape="1557.93,1272.89 1556.63,1273.52 1556.13,1274.26 1556.42,1275.11 1557.50,1276.06"/>
    </edge>
    <edge id=":2356290815_3" function="internal">
        <lane id=":2356290815_3_0" index="0" allow="pedestrian motorcycle moped bicycle" speed="5.56" length="10.15" shape="1550.20,1281.71 1551.41,1278.97 1553.03,1277.12 1555.06,1276.15 1557.50,1276.06"/>
    </edge>
    <edge id=":2356290815_4" function="internal">
        <lane id=":2356290815_4_0" index="0" allow="pedestrian motorcycle moped bicycle" speed="5.56" length="15.13" shape="1550.20,1281.71 1550.89,1277.48 1549.96,1274.34 1547.40,1272.30 1543.21,1271.35"/>
    </edge>
    <edge id=":2356290815_5" function="internal">
        <lane id=":2356290815_5_0" index="0" allow="pedestrian motorcycle moped bicycle" speed="3.65" length="4.67" shape="1550.20,1281.71 1549.79,1280.33 1549.15,1279.70 1548.27,1279.84 1547.14,1280.75"/>
    </edge>
    <edge id=":2356290815_6" function="internal">
        <lane id=":2356290815_6_0" index="0" allow="pedestrian motorcycle moped bicycle" speed="5.56" length="9.07" shape="1542.96,1274.54 1545.47,1275.11 1547.00,1276.33 1547.56,1278.21 1547.14,1280.75"/>
    </edge>
    <edge id=":2356290815_7" function="internal">
        <lane id=":2356290815_7_0" index="0" allow="pedestrian motorcycle moped bicycle" speed="5.56" length="14.62" shape="1542.96,1274.54 1557.50,1276.06"/>
    </edge>
    <edge id=":2356290815_8" function="internal">
        <lane id=":2356290815_8_0" index="0" allow="pedestrian motorcycle moped bicycle" speed="3.65" length="4.67" shape="1542.96,1274.54 1544.22,1273.84 1544.68,1273.07 1544.34,1272.25 1543.21,1271.35"/>
    </edge>
    <edge id=":2356290822_0" function="internal">
        <lane id=":2356290822_0_0" index="0" allow="pedestrian motorcycle moped bicycle" speed="3.65" length="4.67" shape="1545.39,1286.31 1545.80,1287.69 1546.44,1288.32 1547.32,1288.17 1548.45,1287.27"/>
    </edge>
    <edge id=":2356290861_0" function="internal">
        <lane id=":2356290861_0_0" index="0" disallow="tram rail_urban rail rail_electric rail_fast ship" speed="13.89" length="36.95" shape="1972.76,1528.59 1970.34,1535.33 1965.94,1545.73 1961.33,1556.05 1958.29,1562.56"/>
    </edge>
    <edge id=":2356290861_1" function="internal">
        <lane id=":2356290861_1_0" index="0" disallow="tram rail_urban rail rail_electric rail_fast ship" speed="13.89" length="37.12" shape="1972.76,1528.59 1964.96,1564.88"/>
    </edge>
    <edge id=":2356290861_2" function="internal">
        <lane id=":2356290861_2_0" index="0" disallow="tram rail_urban rail rail_electric rail_fast ship" speed="3.65" length="1.44" shape="1972.76,1528.59 1973.27,1529.94"/>
    </edge>
    <edge id=":2356290861_9" function="internal">
        <lane id=":2356290861_9_0" index="0" disallow="tram rail_urban rail rail_electric rail_fast ship" speed="3.65" length="3.23" shape="1973.27,1529.94 1973.96,1530.51 1974.83,1530.30 1975.88,1529.31"/>
    </edge>
    <edge id=":2356290861_3" function="internal">
        <lane id=":2356290861_3_0" index="0" disallow="tram rail_urban rail rail_electric rail_fast ship" speed="13.89" length="36.83" shape="1968.17,1565.33 1975.88,1529.31"/>
    </edge>
    <edge id=":2356290861_4" function="internal">
        <lane id=":2356290861_4_0" index="0" disallow="tram rail_urban rail rail_electric rail_fast ship" speed="5.79" length="2.28" shape="1968.17,1565.33 1967.85,1563.06"/>
    </edge>
    <edge id=":2356290861_5" function="internal">
        <lane id=":2356290861_5_0" index="0" disallow="tram rail_urban rail rail_electric rail_fast ship" speed="3.67" length="1.46" shape="1968.17,1565.33 1967.54,1564.01"/>
    </edge>
    <edge id=":2356290861_10" function="internal">
        <lane id=":2356290861_10_0" index="0" disallow="tram rail_urban rail rail_electric rail_fast ship" speed="5.79" length="12.10" shape="1967.85,1563.06 1967.69,1561.88 1964.81,1559.99 1961.14,1560.08 1958.29,1562.56"/>